%nprocshared=24
%mem=80GB
%chk=08.chk
#p opt freq m062x/6-311++g(d,p) geom=connectivity temperature=0.001

2_methyl_pyridine_n_oxide.sdf

0 1
 C                 -2.81850000    0.04100000    0.02190000
 C                 -2.11090000   -1.16900000   -0.07820000
 N                 -0.75720000   -1.16640000   -0.23470000
 C                 -0.03190000   -0.00260000   -0.30990000
 C                 -0.71390000    1.23400000   -0.20420000
 C                 -2.10990000    1.25100000   -0.04090000
 C                  1.44320000   -0.01780000   -0.48070000
 O                 -0.17370000   -2.33680000   -0.30870000
 H                 -3.88149224    0.03992717    0.14415529
 H                 -2.63860823   -2.09863252   -0.03121697
 H                 -0.16787379    2.15312445   -0.24853525
 H                 -2.63040219    2.18276161    0.03524308
 H                  1.77786389    0.95407340   -0.77795778
 H                  1.90672816   -0.28683611    0.44540001
 H                  1.70785084   -0.73158923   -1.23260749

 1 2 2.0 6 1.0 9 1.0
 2 3 1.0 10 1.0
 3 4 2.0 8 1.0
 4 5 1.0 7 1.0
 5 6 2.0 11 1.0
 6 12 1.0
 7 13 1.0 14 1.0 15 1.0
 8
 9
 10
 11
 12
 13
 14
 15

