%nprocshared=24
%mem=80GB
%chk=11.chk
#p opt freq m062x/6-311++g(d,p) geom=connectivity temperature=0.001

dodecyl_methyl_sulfoxide.sdf

0 1
 C                  2.97920000   10.52680000   -7.27510000
 C                  2.70120000   10.23250000   -5.78270000
 C                  2.39280000    8.73530000   -5.51080000
 C                  2.11300000    8.43630000   -4.01220000
 C                  1.80650000    6.93540000   -3.75550000
 C                  1.52550000    6.61530000   -2.26320000
 C                  1.22500000    5.10970000   -2.02520000
 C                  0.95100000    4.78830000   -0.53320000
 C                  0.65940000    3.28400000   -0.27470000
 C                  0.37860000    2.99980000    1.22290000
 C                  0.04160000    1.51700000    1.51320000
 S                 -0.22830000    1.22650000    3.30300000
 C                 -1.70900000    2.19750000    3.76810000
 O                 -0.68590000   -0.30610000    3.40660000
 H                  3.18531362   11.56922139   -7.40069784
 H                  3.82289930    9.95469218   -7.60031398
 H                  2.12175151   10.26012978   -7.85696689
 H                  1.80802060   10.76795892   -5.53690677
 H                  3.61261520   10.44574885   -5.26429160
 H                  3.28611977    8.20025472   -5.75698357
 H                  1.48152857    8.52245869   -6.02962845
 H                  1.21896347    8.96931259   -3.76421558
 H                  3.02360090    8.64742919   -3.49149810
 H                  2.70103165    6.40492346   -4.00711034
 H                  0.89616394    6.72719396   -4.27783944
 H                  0.62866549    7.14114157   -2.01006269
 H                  2.43422168    6.82375589   -1.73815614
 H                  2.12024581    4.58347506   -2.28311907
 H                  0.31366157    4.90246486   -2.54617588
 H                  0.05205206    5.31035922   -0.27973055
 H                  1.86058689    5.00557636   -0.01325513
 H                  1.55967861    2.75841382   -0.51585886
 H                 -0.24707245    3.06027215   -0.79734093
 H                 -0.50295503    3.55486177    1.46716861
 H                  1.29572109    3.19887227    1.73686414
 H                  0.91003149    0.95272667    1.24427184
 H                 -0.89383315    1.32114724    1.03204875
 H                 -1.73253874    2.32534949    4.83017365
 H                 -1.67022619    3.15606884    3.29424097
 H                 -2.58964668    1.67859344    3.45171826

 1 2 1.0 15 1.0 16 1.0 17 1.0
 2 3 1.0 18 1.0 19 1.0
 3 4 1.0 20 1.0 21 1.0
 4 5 1.0 22 1.0 23 1.0
 5 6 1.0 24 1.0 25 1.0
 6 7 1.0 26 1.0 27 1.0
 7 8 1.0 28 1.0 29 1.0
 8 9 1.0 30 1.0 31 1.0
 9 10 1.0 32 1.0 33 1.0
 10 11 1.0 34 1.0 35 1.0
 11 12 1.0 36 1.0 37 1.0
 12 13 1.0 14 2.0
 13 38 1.0 39 1.0 40 1.0
 14
 15
 16
 17
 18
 19
 20
 21
 22
 23
 24
 25
 26
 27
 28
 29
 30
 31
 32
 33
 34
 35
 36
 37
 38
 39
 40

