%nprocshared=24
%mem=80GB
%chk=11_p.chk
#p opt freq m062x/6-311++g(d,p) geom=connectivity temperature=0.001

diisobutyl_sulfoxide_p.sdf

1 1
 S                  0.26874253    0.30136112   -0.67261237
 C                 -1.03715753    0.86074270    0.39982284
 H                 -0.72211588    0.77725884    1.41897896
 H                 -1.26625238    1.88252570    0.17987957
 C                  0.64985358   -1.39842744   -0.30672545
 H                 -0.22110057   -2.00046911   -0.46127220
 H                  1.43486092   -1.73468490   -0.95139156
 C                  1.10327801   -1.51858178    1.16009738
 C                  1.43300330   -2.98918536    1.47665124
 H                  1.74804495   -3.07266921    2.49580737
 H                  0.56204916   -3.59122703    1.32210450
 H                  2.21801064   -3.32544282    0.83198513
 C                  2.35680080   -0.65209188    1.38252915
 H                  3.14180814   -0.98834935    0.73786304
 H                  2.12770595    0.36969112    1.16258589
 H                  2.67184245   -0.73557574    2.40168528
 C                 -2.29068032   -0.00574719    0.17739107
 C                 -3.42050397    0.47821215    1.10522827
 H                 -4.29145811   -0.12382953    0.95068152
 H                 -3.10546232    0.39472829    2.12438439
 H                 -3.64959881    1.49999516    0.88528500
 C                 -2.74410475    0.11440715   -1.28943177
 H                 -3.61505890   -0.48763453   -1.44397851
 H                 -2.97319960    1.13619015   -1.50937503
 H                 -1.95909741   -0.22185032   -1.93409787
 H                 -2.06158547   -1.02753020    0.39733433
 H                  0.31827067   -1.18232431    1.80476349
 O                 -0.16395393    0.41602269   -2.07238044
 H                  0.49305350    0.90651606   -2.57173753

 1 2 1.0 5 1.0 28 2.0
 2 3 1.0 4 1.0 17 1.0
 3
 4
 5 6 1.0 7 1.0 8 1.0
 6
 7
 8 9 1.0 13 1.0 27 1.0
 9 10 1.0 11 1.0 12 1.0
 10
 11
 12
 13 14 1.0 15 1.0 16 1.0
 14
 15
 16
 17 18 1.0 22 1.0 26 1.0
 18 19 1.0 20 1.0 21 1.0
 19
 20
 21
 22 23 1.0 24 1.0 25 1.0
 23
 24
 25
 26
 27
 28 29 1.0
 29

