%nprocshared=24
%mem=80GB
%chk=13_p.chk
#p opt freq m062x/6-311++g(d,p) geom=connectivity temperature=0.001

4_methyl_pyridine_n_oxide.sdf

1 1
 C                 -0.76960000   -1.17660000   -0.01260000
 C                 -2.17140000   -1.10310000   -0.09800000
 N                 -2.79360000    0.10810000   -0.13090000
 C                 -2.09140000    1.27420000   -0.08450000
 C                 -0.68780000    1.25160000    0.00120000
 C                 -0.00940000    0.01310000    0.04540000
 O                 -4.09690000    0.15240000   -0.20880000
 C                  1.46800000   -0.03730000    0.13470000
 H                 -0.28124814   -2.12842650    0.00834719
 H                 -2.75108176   -2.00161416   -0.13726030
 H                 -2.60909882    2.21017899   -0.11333159
 H                 -0.13634678    2.16800729    0.03277576
 H                  1.80510726   -1.02834794   -0.08684609
 H                  1.89144491    0.64902476   -0.56854444
 H                  1.77487989    0.23100883    1.12401042
 H                 -4.35405809    0.60961865   -1.01280300

 1 2 2.0 6 1.0 9 1.0
 2 3 1.0 10 1.0
 3 4 2.0 7 1.0
 4 5 1.0 11 1.0
 5 6 2.0 12 1.0
 6 8 1.0
 7 16 1.0
 8 13 1.0 14 1.0 15 1.0
 9
 10
 11
 12
 13
 14
 15
 16

