%nprocshared=24
%mem=70GB
%chk=14_p_b.chk
#p opt freq m062x/6-311++g(d,p) geom=connectivity temperature=0.001

ricobenzadole

1 1
 C                -10.05298086   -2.94735121    1.80370210
 C                 -9.28968086   -0.56975121    2.40210210
 C                 -9.32568086   -2.05615121    2.83130210
 S                 -8.40388086    0.45954879    3.63640210
 C                 -6.75898086   -0.18525121    3.72210210
 O                 -8.28578086    1.90674879    2.95540210
 C                 -5.83748086    0.01314879    2.66230210
 C                 -4.52698086   -0.50575121    2.74250210
 C                 -4.15948086   -1.21715121    3.89650210
 C                 -5.06998086   -1.42395121    4.92660210
 C                 -6.37908086   -0.92255121    4.86650210
 N                 -2.99138086   -1.78655121    4.23430210
 C                 -3.17788086   -2.34285121    5.45170210
 N                 -4.43738086   -2.12615121    5.86980210
 N                 -2.40420000   -3.20190000    6.15860000
 C                 -1.09260000   -3.40720000    5.88480000
 O                 -0.42050000   -4.20310000    6.76490000
 O                 -0.52340000   -2.91570000    4.88040000
 C                  0.96560000   -4.56280000    6.75260000
 H                -10.87322264   -3.44343008    2.27910633
 H                -10.41921872   -2.34105013    1.00172402
 H                 -9.37102906   -3.67579864    1.41743007
 H                -10.30482856   -0.23156470    2.39985831
 H                 -8.71021262   -0.52900559    1.50351635
 H                 -9.91209674   -2.09358397    3.72551415
 H                 -8.30813762   -2.38680112    2.84458349
 H                 -6.13833662    0.56118727    1.79394754
 H                 -3.83041512   -0.36057950    1.94336422
 H                 -7.07059065   -1.09362732    5.66490499
 H                 -2.15072605   -1.79692158    3.69283008
 H                 -2.79689122   -3.71776195    6.91996723
 H                  1.18190325   -5.17826741    7.60072309
 H                  1.18621096   -5.10197558    5.85509206
 H                  1.56434239   -3.67691516    6.79279462
 H                 -4.83110731   -2.43638413    6.73509686

 1 3 1.0 20 1.0 21 1.0 22 1.0
 2 3 1.0 4 1.0 23 1.0 24 1.0
 3 25 1.0 26 1.0
 4 5 1.0 6 2.0
 5 7 2.0 11 1.0
 6
 7 8 1.0 27 1.0
 8 9 2.0 28 1.0
 9 10 1.0 12 1.0
 10 11 2.0 14 1.0
 11 29 1.0
 12 13 2.0 30 1.0
 13 14 1.0 15 1.0
 14 35 1.0
 15 16 1.0 31 1.0
 16 17 1.0 18 2.0
 17 19 1.0
 18
 19 32 1.0 33 1.0 34 1.0
 20
 21
 22
 23
 24
 25
 26
 27
 28
 29
 30
 31
 32
 33
 34
 35

