%chk=3_p.chk
%nprocshared=24
%mem=80GB
#p opt freq m062x/6-311++g(d,p) geom=connectivity temperature=0.001

Title Card Required

1 1
 O                 -2.06672738    1.10866277   -0.00271158
 N                 -0.70683118    1.11836715    0.01100444
 C                 -0.06041617   -0.00946281    0.00322608
 C                  1.47933145   -0.03134392   -0.00048244
 C                  2.15635783    1.13506368   -0.00064615
 C                  1.36411609    2.44832479   -0.00005792
 C                  0.00905675    2.40981140    0.00300109
 H                 -0.60345029   -0.93141757   -0.00042777
 H                  2.00665421   -0.96237771   -0.00308960
 H                  3.22631924    1.14410752   -0.00154400
 H                  1.87689479    3.38744847   -0.00222979
 H                 -0.54705097    3.32394153   -0.00020992
 H                 -2.39783702    1.55860626    0.77800428

 1 2 1.0 13 1.0
 2 3 2.0 7 1.0
 3 4 1.0 8 1.0
 4 5 2.0 9 1.0
 5 6 1.0 10 1.0
 6 7 2.0 11 1.0
 7 12 1.0
 8
 9
 10
 11
 12
 13

