%chk=4.chk
%nprocshared=24
%mem=80GB
#P opt freq m062x/6-311++g(d,p) geom=connectivity temperature=0.001

Title Card Required

0 1
 O                  1.30350000   -0.08310000    0.00000000
 N                 -0.00470000   -0.01330000    0.00000000
 C                 -0.68000000   -1.19510000    0.00000000
 C                 -2.08410000   -1.21550000    0.00000000
 C                 -2.78570000   -0.00010000    0.00000000
 C                 -2.08250000    1.22420000    0.00000000
 C                 -0.65540000    1.19360000    0.00000000
 C                  0.05090000    2.42020000    0.00000000
 C                 -0.63390000    3.64640000    0.00000000
 C                 -2.03840000    3.66780000    0.00000000
 C                 -2.76380000    2.46260000    0.00000000
 H                 -0.10050000   -2.11830000    0.00000000
 H                 -2.62280000   -2.16310000    0.00000000
 H                 -3.87570000   -0.00710000    0.00000000
 H                  1.14090000    2.42050000    0.00000000
 H                 -0.07490000    4.58220000    0.00000000
 H                 -2.56640000    4.62140000    0.00000000
 H                 -3.85340000    2.48830000    0.00000000

 1 2 1.0
 2 3 2.0 7 1.0
 3 4 1.0 12 1.0
 4 5 2.0 13 1.0
 5 6 1.0 14 1.0
 6 7 2.0 11 1.0
 7 8 1.0
 8 9 2.0 15 1.0
 9 10 1.0 16 1.0
 10 11 2.0 17 1.0
 11 18 1.0
 12
 13
 14
 15
 16
 17
 18

