%chk=11_p.chk
%nprocshared=24
%mem=80GB
#P opt freq m062x/6-311++g(d,p) geom=connectivity temperature=0.001

Title Card Required

1 1
 O                  1.46910000    0.10990000    0.08180000
 N                  0.11660000    0.16160000    0.20360000
 C                 -0.47430000   -1.19450000    0.14900000
 C                 -0.26160000   -1.85590000   -1.24550000
 C                 -0.95740000   -3.23810000   -1.34330000
 C                 -2.46410000   -3.15580000   -0.99070000
 C                 -2.69640000   -2.48160000    0.38600000
 C                 -1.99000000   -1.10440000    0.48810000
 H                  1.86870000    0.09450000    0.95450000
 H                 -0.11806676    0.58676847    1.07776433
 H                  0.05830000   -1.78130000    0.89740000
 H                 -0.76170000   -1.21260000   -1.96950000
 H                  0.80780000   -2.04760000   -1.33410000
 H                 -0.90560000   -3.53220000   -2.39160000
 H                 -0.49940000   -3.86490000   -0.57810000
 H                 -2.91610000   -2.49850000   -1.73340000
 H                 -2.81090000   -4.18430000   -0.89000000
 H                 -3.76590000   -2.28070000    0.44970000
 H                 -2.21780000   -3.12480000    1.12440000
 H                 -2.43800000   -0.47640000   -0.28190000
 H                 -2.05120000   -0.80960000    1.53570000
 H                 -0.25900938    0.71335897   -0.54103389

 1 2 1.0 9 1.0
 2 3 1.0 10 1.0 22 1.0
 3 4 1.0 8 1.0 11 1.0
 4 5 1.0 12 1.0 13 1.0
 5 6 1.0 14 1.0 15 1.0
 6 7 1.0 16 1.0 17 1.0
 7 8 1.0 18 1.0 19 1.0
 8 20 1.0 21 1.0
 9
 10
 11
 12
 13
 14
 15
 16
 17
 18
 19
 20
 21
 22

