%chk=16.chk
%nprocshared=24
%mem=80GB
#P opt freq m062x/6-311++g(d,p) geom=connectivity temperature=0.001

Title Card Required

0 1
 C                 -0.32780000   -1.38780000    0.22770000
 C                  0.13790000   -0.04720000   -0.17520000
 C                  1.54360000    0.21080000   -0.54410000
 O                 -0.68280000    0.89980000   -0.20510000
 H                 -0.35040000   -1.45290000    1.31550000
 H                 -1.32920000   -1.55850000   -0.16740000
 H                  0.35220000   -2.14260000   -0.16740000
 H                  2.14230000    0.32060000    0.36010000
 H                  1.92390000   -0.62430000   -1.13250000
 H                  1.60260000    1.12640000   -1.13250000

 1 2 1.0 5 1.0 6 1.0 7 1.0
 2 3 1.0 4 2.0
 3 8 1.0 9 1.0 10 1.0
 4
 5
 6
 7
 8
 9
 10

