%chk=17.chk
%nprocshared=24
%mem=80GB
#P opt freq m062x/6-311++g(d,p) geom=connectivity temperature=0.001

Title Card Required

0 1
 O                  2.45760000    0.22950000   -0.04540000
 C                  1.78760000   -0.33090000   -0.94270000
 O                  1.91000000    0.11000000   -2.22280000
 C                  2.68510000   -0.54790000   -3.22460000
 C                  0.77450000   -1.34630000   -0.59550000
 C                 -0.53180000   -0.67880000   -0.08780000
 C                 -1.65720000   -1.70330000    0.20520000
 C                 -2.96290000   -1.03330000    0.71630000
 C                 -4.06700000   -2.07660000    1.03530000
 C                 -5.37470000   -1.43690000    1.57310000
 C                 -6.46570000   -2.49150000    1.90140000
 C                 -7.76790000   -1.84380000    2.44230000
 C                 -8.86410000   -2.89060000    2.77320000
 C                -10.16330000   -2.23320000    3.31250000
 C                -11.26200000   -3.27660000    3.64350000
 C                -12.55760000   -2.61740000    4.18110000
 C                -13.64710000   -3.66900000    4.50780000
 C                -14.94650000   -3.01950000    5.04610000
 C                -16.03480000   -4.07510000    5.37200000
 C                -17.33870000   -3.43320000    5.91140000
 C                -18.42370000   -4.48320000    6.23650000
 H                  3.43230000   -1.18210000   -2.74760000
 H                  2.03150000   -1.16050000   -3.84560000
 H                  3.18330000    0.19660000   -3.84560000
 H                  0.53770000   -1.85390000   -1.53060000
 H                  1.19750000   -1.90770000    0.23750000
 H                 -0.28440000   -0.22150000    0.87020000
 H                 -0.89400000   -0.06080000   -0.90930000
 H                 -1.90600000   -2.15900000   -0.75320000
 H                 -1.29390000   -2.32280000    1.02520000
 H                 -2.71080000   -0.55780000    1.66420000
 H                 -3.34160000   -0.43290000   -0.11090000
 H                 -4.32830000   -2.53790000    0.08290000
 H                 -3.67600000   -2.68860000    1.84820000
 H                 -5.11330000   -0.96720000    2.52140000
 H                 -5.77330000   -0.83350000    0.75760000
 H                 -6.73080000   -2.95940000    0.95330000
 H                 -6.06740000   -3.09720000    2.71550000
 H                 -7.50140000   -1.37580000    3.39000000
 H                 -8.16480000   -1.23790000    1.62780000
 H                 -9.13140000   -3.35940000    1.82620000
 H                 -8.46890000   -3.49620000    3.58870000
 H                 -9.89570000   -1.76490000    4.25970000
 H                -10.55770000   -1.62690000    2.49700000
 H                -11.53050000   -3.74540000    2.69680000
 H                -10.86900000   -3.88290000    4.45960000
 H                -12.29160000   -2.14910000    5.12870000
 H                -12.95310000   -2.01150000    3.36580000
 H                -13.91160000   -4.13700000    3.55960000
 H                -13.25010000   -4.27470000    5.32250000
 H                -14.68230000   -2.55150000    5.99430000
 H                -15.34370000   -2.41390000    4.23140000
 H                -16.29740000   -4.54280000    4.42310000
 H                -15.63600000   -4.68040000    6.18600000
 H                -17.07730000   -2.96570000    6.86070000
 H                -17.73880000   -2.82810000    5.09780000
 H                -18.52350000   -4.57970000    7.31770000
 H                -19.37560000   -4.16580000    5.81070000
 H                -18.13780000   -5.44490000    5.81070000

 1 2 2.0
 2 3 1.0 5 1.0
 3 4 1.0
 4 22 1.0 23 1.0 24 1.0
 5 6 1.0 25 1.0 26 1.0
 6 7 1.0 27 1.0 28 1.0
 7 8 1.0 29 1.0 30 1.0
 8 9 1.0 31 1.0 32 1.0
 9 10 1.0 33 1.0 34 1.0
 10 11 1.0 35 1.0 36 1.0
 11 12 1.0 37 1.0 38 1.0
 12 13 1.0 39 1.0 40 1.0
 13 14 1.0 41 1.0 42 1.0
 14 15 1.0 43 1.0 44 1.0
 15 16 1.0 45 1.0 46 1.0
 16 17 1.0 47 1.0 48 1.0
 17 18 1.0 49 1.0 50 1.0
 18 19 1.0 51 1.0 52 1.0
 19 20 1.0 53 1.0 54 1.0
 20 21 1.0 55 1.0 56 1.0
 21 57 1.0 58 1.0 59 1.0
 22
 23
 24
 25
 26
 27
 28
 29
 30
 31
 32
 33
 34
 35
 36
 37
 38
 39
 40
 41
 42
 43
 44
 45
 46
 47
 48
 49
 50
 51
 52
 53
 54
 55
 56
 57
 58
 59

