%chk=28.chk
%nprocshared=24
%mem=80GB
#P opt freq m062x/6-311++g(d,p) geom=connectivity temperature=0.001

Title Card Required

0 1
 C                  4.17420000    0.57310000    1.44060000
 C                  3.04090000    1.27870000    1.38930000
 S                  2.56250000    2.17260000   -0.03410000
 O                  2.91240000    1.33330000   -1.36040000
 C                  3.38090000    3.71570000   -0.08110000
 C                  3.23910000    4.61760000    0.89450000
 O                  0.97240000    2.41060000   -0.01070000
 H                  4.13760000   -0.51610000    1.46160000
 H                  5.13540000    1.08660000    1.46160000
 H                  2.57480000    1.14470000    2.36540000
 H                  4.05950000    4.16890000   -0.80370000
 H                  4.11540000    4.98540000    1.42820000
 H                  2.24710000    4.98540000    1.15660000

 1 2 2.0 8 1.0 9 1.0
 2 3 1.0 10 1.0
 3 4 2.0 5 1.0 7 2.0
 4
 5 6 2.0 11 1.0
 6 12 1.0 13 1.0
 7
 8
 9
 10
 11
 12
 13

