%chk=32_p.chk
%nprocshared=24
%mem=80GB
#p opt freq m062x/6-311++g(d,p) geom=connectivity temperature=0.001

Title Card Required

1 1
 O                  0.00000400    2.54302300    0.22570300
 S                  0.00000000    1.25741000    1.00880900
 C                 -1.35376100    0.26149600    0.32476700
 C                 -1.76341600   -0.89757200    0.97186800
 C                 -2.81008400   -1.63520500    0.43053100
 C                 -3.43966700   -1.19989100   -0.73287400
 C                 -3.02890600   -0.02499400   -1.35503700
 C                 -1.97928900    0.71917000   -0.82438300
 C                  1.35376100    0.26149200    0.32476900
 C                  1.76340000   -0.89758700    0.97186000
 C                  2.81006700   -1.63522100    0.43052500
 C                  3.43966600   -1.19989700   -0.73286800
 C                  3.02892100   -0.02499100   -1.35502100
 C                  1.97930400    0.71917500   -0.82436900
 H                 -1.28123800   -1.21882000    1.88898300
 H                 -3.14100600   -2.54240300    0.92152700
 H                 -4.25908300   -1.77369700   -1.14889400
 H                 -3.52960600    0.31701200   -2.25294000
 H                 -1.64380500    1.64863400   -1.27127400
 H                  1.28120900   -1.21884400    1.88896500
 H                  3.14097700   -2.54242800    0.92151300
 H                  4.25908300   -1.77370500   -1.14888700
 H                  3.52963300    0.31702400   -2.25291500
 H                  1.64383100    1.64864700   -1.27125200
 H                  0.83138966    2.95295724   -0.02400042

 1 2 1.5 25 1.0
 2 3 1.0 9 1.0
 3 4 1.5 8 1.5
 4 5 1.5 15 1.0
 5 6 1.5 16 1.0
 6 7 1.5 17 1.0
 7 8 1.5 18 1.0
 8 19 1.0
 9 10 1.5 14 1.5
 10 11 1.5 20 1.0
 11 12 1.5 21 1.0
 12 13 1.5 22 1.0
 13 14 1.5 23 1.0
 14 24 1.0
 15
 16
 17
 18
 19
 20
 21
 22
 23
 24
 25

