%chk=5.chk
%nprocshared=24
%mem=80GB
#P opt freq m062x/6-311++g(d,p) geom=connectivity temperature=0.001

Title Card Required

0 1
 C                 -0.43640000   -1.95190000   -1.33540000
 C                 -0.73380000   -1.15830000   -0.02330000
 C                 -0.41030000   -2.04160000    1.22350000
 C                 -2.20860000   -0.63370000    0.00290000
 C                 -2.08320000    0.90130000   -0.03000000
 C                 -0.67120000    1.10650000   -0.00540000
 N                  0.01340000    0.02620000    0.00030000
 O                  1.28910000    0.05600000    0.01870000
 H                 -0.48260000   -3.02170000   -1.13140000
 H                 -1.17740000   -1.69400000   -2.09200000
 H                  0.55850000   -1.69400000   -1.69850000
 H                 -0.48100000   -3.09460000    0.95100000
 H                  0.59940000   -1.82340000    1.57130000
 H                 -1.12350000   -1.82340000    2.01840000
 H                 -2.69240000   -0.94280000   -0.92370000
 H                 -2.64590000   -0.90620000    0.96340000
 H                 -2.44240000    1.27110000   -0.99040000
 H                 -2.48150000    1.31460000    0.89670000
 H                 -0.13450000    2.05510000    0.00850000

 1 2 1.0 9 1.0 10 1.0 11 1.0
 2 3 1.0 4 1.0 7 1.0
 3 12 1.0 13 1.0 14 1.0
 4 5 1.0 15 1.0 16 1.0
 5 6 1.0 17 1.0 18 1.0
 6 7 2.0 19 1.0
 7 8 1.0
 8
 9
 10
 11
 12
 13
 14
 15
 16
 17
 18
 19

