%chk=7_p_b.chk
%nprocshared=24
%mem=80GB
#p opt freq m062x/6-311++g(d,p) geom=connectivity temperature=0.001

Title Card Required

1 1
 C                 -2.20880100   -2.67372800    0.79672900
 O                 -1.75014600   -2.09920000   -0.44152600
 C                 -0.65151500   -1.34199300   -0.30293500
 N                  0.52775900   -1.84441800   -0.35571500
 C                  1.39074200   -0.88009800   -0.18897600
 C                  2.79465000   -0.95109500   -0.15233500
 C                  3.51990100    0.23240200    0.09591800
 C                  2.84122100    1.45162300    0.30962900
 C                  1.43224800    1.50666500    0.26180500
 C                  0.70874700    0.32222400   -0.00941300
 C                 -0.62755600    0.00834900   -0.14046800
 C                 -1.71610600    0.80141400   -0.15535600
 N                 -1.67264200    2.12047800   -0.07631700
 O                 -2.76014400    2.84052100   -0.08694000
 H                 -1.97314400   -1.99899900    1.61969600
 H                 -3.28703200   -2.82604300    0.74922100
 H                 -1.71337200   -3.63104900    0.95857700
 H                  3.30775100   -1.89936400   -0.31237000
 H                  4.60919200    0.20473900    0.12275300
 H                  3.41034700    2.35860900    0.51349800
 H                  0.91116800    2.44894700    0.43149600
 H                 -2.70176400    0.34338700   -0.23708700
 H                 -0.78231900    2.59204800   -0.00572100
 H                 -2.58549300    3.69015700    0.32429900
 H                  0.74773885   -2.80921380   -0.49986055

 1 2 1.0 15 1.0 16 1.0 17 1.0
 2 3 1.5
 3 4 2.0 11 2.0
 4 5 2.0 25 1.0
 5 6 1.5 10 1.5
 6 7 1.5 18 1.0
 7 8 1.5 19 1.0
 8 9 1.5 20 1.0
 9 10 1.5 21 1.0
 10 11 2.0
 11 12 2.0
 12 13 2.0 22 1.0
 13 14 1.0 23 1.0
 14 24 1.0
 15
 16
 17
 18
 19
 20
 21
 22
 23
 24
 25

