%chk=ammonia_p.chk
%nprocshared=24
%mem=10GB
#P opt freq m062x/6-311++g(d,p) geom=connectivity temperature=0.001

Title Card Required

1 1
 N                  0.01212121    1.03636362    0.00000000
 H                  0.34544281    0.09355043    0.00000000
 H                  0.34546041    1.50776399    0.81649658
 H                  0.34546041    1.50776399   -0.81649658
 H                 -0.98787879    1.03637607    0.00000000

 1 2 1.0 3 1.0 4 1.0 5 1.0
 2
 3
 4
 5

