%chk=19.chk
%nprocshared=24
%mem=80GB
#p opt freq b3lyp/6-31g(d) geom=connectivity temperature=0.001

Title Card Required

0 1
 N                 -0.76420235   -1.25002123    0.30076841
 C                 -0.03391784    0.01910609    0.17076693
 C                 -0.71584477    1.18468260    0.05686299
 C                  0.04921519    2.51424450   -0.07932953
 C                  1.40439488    2.51868243   -0.08527541
 C                  2.17931185    1.19416376    0.04416183
 C                  1.50605908    0.02414928    0.16401119
 H                 -1.64030853   -1.18085638   -0.17636280
 H                 -0.22309886   -1.98865735   -0.10125609
 H                 -1.78582873    1.18117862    0.06155744
 H                 -0.48920114    3.43452702   -0.16926252
 H                  1.93596252    3.44246902   -0.17990190
 H                  3.24929582    1.19766783    0.03946831
 H                  2.04447541   -0.89613321    0.25394442

 1 2 1.0 8 1.0 9 1.0
 2 3 2.0 7 1.0
 3 4 1.0 10 1.0
 4 5 2.0 11 1.0
 5 6 1.0 12 1.0
 6 7 2.0 13 1.0
 7 14 1.0
 8
 9
 10
 11
 12
 13
 14

