%chk=19_p.chk
%nprocshared=24
%mem=80GB
#p opt freq b3lyp/6-31g(d) geom=connectivity temperature=0.001

Title Card Required

1 1
 N                 -0.66830000   -1.15750000    0.20960000
 C                  0.00380000    0.00650000    0.12440000
 C                 -0.69950000    1.22810000    0.07610000
 C                  0.00430000    2.44430000   -0.01210000
 C                  1.41030000    2.44270000   -0.04320000
 C                  2.11470000    1.22590000   -0.01210000
 C                  1.41330000    0.00830000    0.07610000
 H                 -0.19842020   -1.85417181   -0.33248980
 H                 -0.70884615   -1.44983489    1.16505608
 H                 -1.78900000    1.23220000    0.10700000
 H                 -0.53980000    3.38780000   -0.05630000
 H                  1.95480000    3.38580000   -0.09140000
 H                  3.20380000    1.22640000   -0.05630000
 H                  1.96160000   -0.93320000    0.10700000
 H                 -1.59666796   -1.03276339   -0.14050527

 1 2 1.0 8 1.0 9 1.0 15 1.0
 2 3 2.0 7 1.0
 3 4 1.0 10 1.0
 4 5 2.0 11 1.0
 5 6 1.0 12 1.0
 6 7 2.0 13 1.0
 7 14 1.0
 8
 9
 10
 11
 12
 13
 14
 15

