%chk=24_p.chk
%nprocshared=24
%mem=80GB
#P opt freq b3lyp/6-31g(d) geom=connectivity temperature=0.001

Title Card Required

1 1
 O                 -0.95740000   -2.22740000   -1.31970000
 S                 -1.08420000   -1.33070000    0.00240000
 C                 -2.53700000   -0.31860000   -0.02470000
 C                 -2.10220000    1.02440000   -0.01760000
 C                 -3.08640000    2.03770000   -0.03720000
 C                 -4.45430000    1.69410000   -0.06880000
 C                 -4.85350000    0.34070000   -0.08040000
 C                 -3.89020000   -0.68620000   -0.05700000
 C                 -0.67600000    1.20230000   -0.00060000
 C                  0.07560000    0.00770000    0.00540000
 C                  1.47810000   -0.01590000    0.00480000
 C                  2.15960000    1.21650000    0.00210000
 C                  1.43970000    2.43010000    0.00240000
 C                  0.02890000    2.42670000    0.00150000
 O                 -0.99150000   -2.19980000    1.34610000
 H                 -2.78980000    3.08660000   -0.02780000
 H                 -5.20880000    2.48070000   -0.08450000
 H                 -5.91320000    0.08670000   -0.10760000
 H                 -4.18370000   -1.73590000   -0.06380000
 H                  2.02080000   -0.96120000    0.00640000
 H                  3.24950000    1.23120000   -0.00030000
 H                  1.97780000    3.37800000    0.00350000
 H                 -0.51650000    3.37050000    0.00240000
 H                 -0.09064227   -2.45906055   -1.66126174

 1 2 2.0 24 1.0
 2 3 1.0 10 1.0 15 2.0
 3 4 2.0 8 1.0
 4 5 1.0 9 1.0
 5 6 2.0 16 1.0
 6 7 1.0 17 1.0
 7 8 2.0 18 1.0
 8 19 1.0
 9 10 2.0 14 1.0
 10 11 1.0
 11 12 2.0 20 1.0
 12 13 1.0 21 1.0
 13 14 2.0 22 1.0
 14 23 1.0
 15
 16
 17
 18
 19
 20
 21
 22
 23
 24

