%chk=27.chk
%nprocshared=24
%mem=80GB
#P opt freq b3lyp/6-31g(d) geom=connectivity temperature=0.001

Title Card Required

0 1
 O                  2.01150000   -1.39690000   -0.22310000
 S                  0.58050000   -1.06760000   -0.87040000
 C                 -0.41030000   -0.11840000    0.25050000
 C                 -1.37670000    0.78260000   -0.24460000
 C                 -2.16560000    1.53270000    0.64570000
 C                 -1.99850000    1.37940000    2.03400000
 C                 -1.04630000    0.47230000    2.53300000
 C                 -0.25670000   -0.27850000    1.64390000
 C                 -0.28860000   -2.63760000   -1.23710000
 O                  0.81570000   -0.26400000   -2.23950000
 H                 -1.51430000    0.89970000   -1.31950000
 H                 -2.90650000    2.23280000    0.25980000
 H                 -2.60750000    1.96400000    2.72360000
 H                 -0.92030000    0.35110000    3.60890000
 H                  0.47520000   -0.98510000    2.03510000
 H                 -0.56070000   -3.12900000   -0.30300000
 H                 -1.18980000   -2.42800000   -1.81330000
 H                  0.36750000   -3.29010000   -1.81330000

 1 2 2.0
 2 3 1.0 9 1.0 10 2.0
 3 4 2.0 8 1.0
 4 5 1.0 11 1.0
 5 6 2.0 12 1.0
 6 7 1.0 13 1.0
 7 8 2.0 14 1.0
 8 15 1.0
 9 16 1.0 17 1.0 18 1.0
 10
 11
 12
 13
 14
 15
 16
 17
 18

