%chk=3.chk
%nprocshared=24
%mem=80GB
#P opt freq b3lyp/6-31g(d) geom=connectivity temperature=0.001

Title Card Required

0 1
 O                 -1.98260000    1.15110000    0.00000000
 N                 -0.67620000    1.16260000    0.00000000
 C                 -0.00350000   -0.02240000    0.00000000
 C                  1.40390000   -0.03550000    0.00000000
 C                  2.09760000    1.18770000    0.00000000
 C                  1.38200000    2.39820000    0.00000000
 C                 -0.02470000    2.36000000    0.00000000
 H                 -0.58250000   -0.94590000    0.00000000
 H                  1.94900000   -0.97940000    0.00000000
 H                  3.18760000    1.19740000    0.00000000
 H                  1.90990000    3.35180000    0.00000000
 H                 -0.61970000    3.27330000    0.00000000

 1 2 1.0
 2 3 2.0 7 1.0
 3 4 1.0 8 1.0
 4 5 2.0 9 1.0
 5 6 1.0 10 1.0
 6 7 2.0 11 1.0
 7 12 1.0
 8
 9
 10
 11
 12

