%chk=32.chk
%nprocshared=24
%mem=80GB
#P opt freq b3lyp/6-31g(d) geom=connectivity temperature=0.001

Title Card Required

0 1
 O                 -2.04640000   -1.69500000    0.96370000
 S                 -0.67440000   -1.66290000    0.13060000
 C                 -1.09710000   -2.21230000   -1.50130000
 C                 -0.23350000   -3.10470000   -2.16950000
 C                 -0.56330000   -3.58310000   -3.45150000
 C                 -1.76290000   -3.17920000   -4.06790000
 C                 -2.62040000   -2.27650000   -3.41250000
 C                 -2.28960000   -1.79670000   -2.13160000
 C                 -0.22630000    0.04900000    0.02000000
 C                  1.12290000    0.41760000    0.20000000
 C                  1.49930000    1.77300000    0.15180000
 C                  0.52720000    2.76750000   -0.06740000
 C                 -0.81790000    2.40420000   -0.26360000
 C                 -1.19370000    1.04880000   -0.21730000
 H                  0.69280000   -3.42590000   -1.69320000
 H                  0.11070000   -4.26700000   -3.96730000
 H                 -2.02750000   -3.56520000   -5.05230000
 H                 -3.54050000   -1.94920000   -3.89670000
 H                 -2.95910000   -1.10090000   -1.62600000
 H                  1.87800000   -0.34830000    0.37720000
 H                  2.54450000    2.05280000    0.28420000
 H                  0.81590000    3.81850000   -0.08510000
 H                 -1.56820000    3.17220000   -0.45140000
 H                 -2.23760000    0.77260000   -0.36570000

 1 2 2.0
 2 3 1.0 9 1.0
 3 4 2.0 8 1.0
 4 5 1.0 15 1.0
 5 6 2.0 16 1.0
 6 7 1.0 17 1.0
 7 8 2.0 18 1.0
 8 19 1.0
 9 10 2.0 14 1.0
 10 11 1.0 20 1.0
 11 12 2.0 21 1.0
 12 13 1.0 22 1.0
 13 14 2.0 23 1.0
 14 24 1.0
 15
 16
 17
 18
 19
 20
 21
 22
 23
 24

