%chk=7_p.chk
%nprocshared=24
%mem=80GB
#P opt freq b3lyp/6-31g(d) geom=connectivity temperature=0.001

Title Card Required

1 1
 C                  1.49920000   -0.01650000   -0.02250000
 O                  0.06120000   -0.02860000    0.05320000
 C                 -0.42120000    0.61250000    1.12830000
 N                 -0.65330000    1.87420000    1.11620000
 C                 -1.11140000    2.21680000    2.28890000
 C                 -1.48570000    3.49130000    2.75030000
 C                 -1.90670000    3.62290000    4.08960000
 C                 -1.93910000    2.49630000    4.93960000
 C                 -1.56750000    1.22320000    4.45830000
 C                 -1.16700000    1.09070000    3.10850000
 C                 -0.76120000    0.03920000    2.31410000
 C                 -0.71930000   -1.28330000    2.56580000
 N                 -1.12800000   -1.83560000    3.69540000
 O                 -1.05690000   -3.12340000    3.88970000
 H                  1.91610000   -0.01300000    0.98460000
 H                  1.84250000   -0.90360000   -0.55470000
 H                  1.82750000    0.87630000   -0.55470000
 H                 -1.45050000    4.35530000    2.08670000
 H                 -2.20820000    4.59910000    4.46930000
 H                 -2.25380000    2.61060000    5.97690000
 H                 -1.58960000    0.35610000    5.11850000
 H                 -0.32690000   -1.95390000    1.80140000
 H                 -0.61040222   -1.40247176    4.43329733
 H                 -1.04680000   -3.30480000    4.83230000
 H                 -2.08686968   -1.57749848    3.81352086

 1 2 1.0 15 1.0 16 1.0 17 1.0
 2 3 1.0
 3 4 2.0 11 1.0
 4 5 1.0
 5 6 2.0 10 1.0
 6 7 1.0 18 1.0
 7 8 2.0 19 1.0
 8 9 1.0 20 1.0
 9 10 2.0 21 1.0
 10 11 1.0
 11 12 2.0
 12 13 1.0 22 1.0
 13 14 1.0 23 1.0 25 1.0
 14 24 1.0
 15
 16
 17
 18
 19
 20
 21
 22
 23
 24
 25

