%nprocshared=24
%mem=70GB
%chk=02.chk
#p opt freq b3lyp/6-31g(d) geom=connectivity temperature=0.001

Nitro Quinoline 8

0 1
 C                 -0.69820847    3.15467285   -1.01216076
 C                 -0.24254852    1.94549150   -0.59730042
 C                  1.25946538    1.61331346   -0.69484834
 C                  2.11965943    2.53226869   -1.19547989
 C                  1.60443137    3.89052183   -1.66096589
 C                  0.28745799    4.19349912   -1.58013489
 N                  3.55706900    2.24506077   -1.30113928
 C                  4.39332850    3.12456233   -1.78227598
 C                  3.92905185    4.52320531   -2.27178841
 C                  2.62282507    4.88562562   -2.21644138
 N                  1.75645921    0.30457164   -0.24641553
 O                  2.89341634   -0.00667563   -0.45325814
 O                  0.92426735   -0.55254545    0.40351292
 H                 -1.74069180    3.38618295   -0.94484377
 H                 -0.92584528    1.22286327   -0.20256764
 H                 -0.06655303    5.14831626   -1.90861693
 H                  5.43182385    2.87365379   -1.84120232
 H                  4.65068108    5.21193939   -2.65882411
 H                  2.31103319    5.85130959   -2.55576466

 1 2 2.0 6 1.0 14 1.0
 2 3 1.0 15 1.0
 3 11 1.0 4 2.0
 4 5 1.0 7 1.0
 5 6 2.0 10 1.0
 6 16 1.0
 7 8 2.0
 8 9 1.0 17 1.0
 9 10 2.0 18 1.0
 10 19 1.0
 11 12 2.0 13 1.0
 12
 13
 14
 15
 16
 17
 18
 19

