%nprocshared=24
%mem=70GB
%chk=07.chk
#p opt freq b3lyp/6-31g(d) geom=connectivity temperature=0.001

methylbenzoic acid

0 1
 C                 -0.31691900    1.47412900    0.00063100
 C                  1.00116700    1.90750000   -0.00047600
 C                  2.04266800    0.98303800   -0.00183400
 C                  1.79173400   -0.38943400   -0.00168300
 C                  0.46518500   -0.81642200   -0.00156000
 C                 -0.57948500    0.10374300    0.00001200
 C                 -1.96995000   -0.42767500   -0.00000100
 O                 -2.26097600   -1.59398400   -0.00232900
 O                 -2.90359900    0.54494800    0.00256300
 C                  2.91499700   -1.39360100    0.00266100
 H                 -1.13657400    2.18040100    0.00126900
 H                  1.22182600    2.96809800   -0.00094400
 H                  3.06929500    1.33389000   -0.00338800
 H                  0.22385400   -1.87418200   -0.00281300
 H                 -3.76545600    0.10874700    0.00256600
 H                  3.20028267   -1.65087966    1.02531023
 H                  3.79594651   -1.00245710   -0.50691605
 H                  2.61318884   -2.31655755   -0.49691431

 1 2 1.5 6 1.5 11 1.0
 2 3 1.5 12 1.0
 3 4 1.5 13 1.0
 4 5 1.5 10 1.0
 5 6 1.5 14 1.0
 6 7 1.0
 7 8 2.0 9 1.0
 8
 9 15 1.0
 10 16 1.0 17 1.0 18 1.0
 11
 12
 13
 14
 15
 16
 17
 18

