%nprocshared=24
%mem=70GB
%chk=14_p.chk
#P opt freq b3lyp/6-31g(d) geom=connectivity temperature=0.001

ricobenzadole plus

1 1
 C                -10.17150000   -3.10770000    1.76760000
 C                 -9.40820000   -0.73010000    2.36600000
 C                 -9.44420000   -2.21650000    2.79520000
 S                 -8.52240000    0.29920000    3.60030000
 C                 -6.87750000   -0.34560000    3.68600000
 O                 -8.40430000    1.74640000    2.91930000
 C                 -5.95600000   -0.14720000    2.62620000
 C                 -4.64550000   -0.66610000    2.70640000
 C                 -4.27800000   -1.37750000    3.86040000
 C                 -5.18850000   -1.58430000    4.89050000
 C                 -6.49760000   -1.08290000    4.83040000
 N                 -3.10990000   -1.94690000    4.19820000
 C                 -3.29640000   -2.50320000    5.41560000
 N                 -4.55590000   -2.28650000    5.83370000
 N                 -2.40420000   -3.20190000    6.15860000
 C                 -1.09260000   -3.40720000    5.88480000
 O                 -0.42050000   -4.20310000    6.76490000
 O                 -0.52340000   -2.91570000    4.88040000
 C                  0.96560000   -4.56280000    6.75260000
 H                -10.99174178   -3.60377887    2.24300423
 H                -10.53773786   -2.50139892    0.96562192
 H                 -9.48954820   -3.83614743    1.38132797
 H                -10.42334770   -0.39191349    2.36375621
 H                 -8.82873176   -0.68935438    1.46741425
 H                -10.03061588   -2.25393276    3.68941205
 H                 -8.42665676   -2.54714991    2.80848139
 H                 -6.25685576    0.40083848    1.75784544
 H                 -3.94893426   -0.52092829    1.90726212
 H                 -7.18910979   -1.25397611    5.62880289
 H                 -2.26924519   -1.95727037    3.65672798
 H                 -2.78150002   -4.12791098    6.14641948
 H                  1.18190325   -5.17826741    7.60072309
 H                  1.18621096   -5.10197558    5.85509206
 H                  1.56434239   -3.67691516    6.79279462
 H                 -7.53982625    2.12414247    2.74154805

 1 3 1.0 20 1.0 21 1.0 22 1.0
 2 3 1.0 4 1.0 23 1.0 24 1.0
 3 25 1.0 26 1.0
 4 5 1.0 6 2.0
 5 7 2.0 11 1.0
 6 35 1.0
 7 8 1.0 27 1.0
 8 9 2.0 28 1.0
 9 10 1.0 12 1.0
 10 11 2.0 14 1.0
 11 29 1.0
 12 13 2.0 30 1.0
 13 14 1.0 15 1.0
 14
 15 16 1.0 31 1.0
 16 17 1.0 18 2.0
 17 19 1.0
 18
 19 32 1.0 33 1.0 34 1.0
 20
 21
 22
 23
 24
 25
 26
 27
 28
 29
 30
 31
 32
 33
 34
 35

